<?xml version="1.0" encoding="UTF-8"?>

<nodes>
    <node id="center" x="0" y="0" type="traffic_light"/>
    <node id="N" x="0" y="100"/>
    <node id="S" x="0" y="-100"/>
    <node id="E" x="100" y="0"/>
    <node id="W" x="-100" y="0"/>
</nodes>