<configuration>

    <input>
        <net-file value="map.net.xml"/>
        <route-files value="routes.rou.xml"/>
    </input>

    <time>
        <begin value="0"/>
        <end value="3600"/>
    </time>

    <gui_only>
        <gui-settings-file value="gui-settings.xml"/>
    </gui_only>

</configuration>